/*--------------------------------*- C++ -*----------------------------------*\
  =========                 |
  \\      /  F ield         | OpenFOAM: The Open Source CFD Toolbox
   \\    /   O peration     | Website:  https://openfoam.org
    \\  /    A nd           | Version:  6
     \\/     M anipulation  |
\*---------------------------------------------------------------------------*/
FoamFile
{
    version     2.0;
    format      ascii;
    class       dictionary;
    object      blockMeshDict;
}
// * * * * * * * * * * * * * * * * * * * * * * * * * * * * * * * * * * * * * //

convertToMeters 0.1;

vertices
(
    (0 0 0)	// point 0
    (1 0 0)	// point 1
    (1 1 0)	// point 2
    (0 1 0)	// point 3
    (0 0 0.1)	// point 4
    (1 0 0.1)	// point 5
    (1 1 0.1)	// point 6
    (0 1 0.1)	// point 7

// here are our new vertices
    (6 0 0)	// point 8
    (6 1 0)	// point 9
    (6 0 0.1)	// point 10
    (6 1 0.1)	// point 11
);

blocks
(
    hex (0 1 2 3 4 5 6 7) (20 40 1) simpleGrading (0.2 20 1)	// first block
    hex (1 8 9 2 5 10 11 6) (100 40 1) simpleGrading (6 20 1)	// second block
);

edges
(
);

boundary
(
    zeroGradientPlanes
    {
        type patch;
        faces
        (
            (1 5 4 0) // this is the bottom left side (y=0 and x=0~1)
	    (8 9 11 10) // this is right side outlet (x=2 plane)
	    (3 7 6 2) // this is top left side (y=1 and x=0~1)
	    (2 6 11 9) // this is top right side (y=1 and x=1~2)
        );
    }

    inlet
    {
        type patch;
        faces
        (
            (0 4 7 3) // this is left side inlet (x=0 plane)
        );
    }

    plate
    {
        type wall;
        faces
        (
            (1 8 10 5) // this is the wall (y=0, x=1~2)
        );
    }

    frontAndBack
    {
        type empty;
        faces
        (
            (0 3 2 1) // this is the front left (z=0 and x=0~1)
            (4 5 6 7) // this is the back left (z=0.1 and x=0~1)
            (1 2 9 8) // this is the front right (z=0 and x=1~2)
            (5 10 11 6) // this is the back right (z=0.1 and x=1~2)
        );
    }
);

mergePatchPairs
(
);

// ************************************************************************* //
